LTspice 24.0.12 for Windows
Circuit: * C:\Users\sambo\Desktop\Anul III\Semestrul 1\Sisteme cu circuite integrate analogice\Proiect SCIA- Samboan Miruna\Proiect.asc
Start Time: Fri Jan 31 23:31:19 2025
Warning: Multiple definitions of model "2scr375p" Type: BJT
Warning: Multiple definitions of model "bc857b" Type: BJT
Warning: Multiple definitions of model "bc847c" Type: BJT
Warning: Multiple definitions of model "bc847b" Type: BJT
solver = Normal
Maximum thread count: 12
tnom = 27
temp = 27
method = modified trap
Direct Newton iteration for .op point succeeded.
Total elapsed time: 0.266 seconds.

